# Discretization file for MODFLOW-2000 (written by Pablo Merchán-Rivera)
         1       260       260       300         1         0
 0
       105         1(15G14.0)                   -1  3. DELR(NCOL)
             5             5             5             5             5             5             5             5             5             5             5             5             5             5             5
             5             5             5             5             5             5             5             5             5             5             5             5             5             5             5
             5             5             5             5             5             5             5             5             5             5             5             5             5             5             5
             5             5             5             5             5             5             5             5             5             5             5             5             5             5             5
             5             5             5             5             5             5             5             5             5             5             5             5             5             5             5
             5             5             5             5             5             5             5             5             5             5             5             5             5             5             5
             5             5             5             5             5             5             5             5             5             5             5             5             5             5             5
             5             5             5             5             5             5             5             5             5             5             5             5             5             5             5
             5             5             5             5             5             5             5             5             5             5             5             5             5             5             5
             5             5             5             5             5             5             5             5             5             5             5             5             5             5             5
             5             5             5             5             5             5             5             5             5             5             5             5             5             5             5
             5             5             5             5             5             5             5             5             5             5             5             5             5             5             5
             5             5             5             5             5             5             5             5             5             5             5             5             5             5             5
             5             5             5             5             5             5             5             5             5             5             5             5             5             5             5
             5             5             5             5             5             5             5             5             5             5             5             5             5             5             5
             5             5             5             5             5             5             5             5             5             5             5             5             5             5             5
             5             5             5             5             5             5             5             5             5             5             5             5             5             5             5
             5             5             5             5             5
       105         1(15G14.0)                   -1  4. DELC(NROW)
             5             5             5             5             5             5             5             5             5             5             5             5             5             5             5
             5             5             5             5             5             5             5             5             5             5             5             5             5             5             5
             5             5             5             5             5             5             5             5             5             5             5             5             5             5             5
             5             5             5             5             5             5             5             5             5             5             5             5             5             5             5
             5             5             5             5             5             5             5             5             5             5             5             5             5             5             5
             5             5             5             5             5             5             5             5             5             5             5             5             5             5             5
             5             5             5             5             5             5             5             5             5             5             5             5             5             5             5
             5             5             5             5             5             5             5             5             5             5             5             5             5             5             5
             5             5             5             5             5             5             5             5             5             5             5             5             5             5             5
             5             5             5             5             5             5             5             5             5             5             5             5             5             5             5
             5             5             5             5             5             5             5             5             5             5             5             5             5             5             5
             5             5             5             5             5             5             5             5             5             5             5             5             5             5             5
             5             5             5             5             5             5             5             5             5             5             5             5             5             5             5
             5             5             5             5             5             5             5             5             5             5             5             5             5             5             5
             5             5             5             5             5             5             5             5             5             5             5             5             5             5             5
             5             5             5             5             5             5             5             5             5             5             5             5             5             5             5
             5             5             5             5             5             5             5             5             5             5             5             5             5             5             5
             5             5             5             5             5
       105         1(15G14.0)                   -1  5. TOP OF SYSTEM
       475.587       475.424       475.236       475.116        475.12        475.04       475.066       475.036       475.192       476.142       476.147       475.758       475.226       475.209       475.346
       475.288       475.291       475.301       475.304       475.284       475.268       475.191       474.758       474.162       473.704       473.588       473.487       473.437       473.388       473.348
       473.374       473.361       473.434       473.475       473.137       472.714       472.657       472.889       473.257       473.297       473.316        473.35        473.53       473.503       473.646
       473.648       472.721       470.347       468.725       467.592       467.053       466.799       466.871       467.011       467.156       467.127       467.041       467.028       466.994        467.01
       466.955       466.931       466.863        466.78       466.625       466.291       466.364       466.153        466.14       466.073        466.09       466.079        465.93       465.649        464.27
       461.545       460.972       460.695       460.523       460.347       460.258       460.371       460.479       460.489       460.307       460.151       460.101        460.13        460.39       460.315
       460.025       460.093       460.157       460.278       460.115       460.195       460.254       460.372       460.536       460.408       458.675       458.684       458.609       458.713       458.607
         458.5        459.26       459.632       459.672       459.686       459.751       459.803       459.796       459.771       459.767        459.78        459.79        459.78        459.66        459.73
       459.807       459.812       459.815       459.868       460.111       459.708       459.529       459.332        459.91       460.052       460.108       460.054       460.068       460.166       460.273
       460.355       460.337       460.356       460.403       460.318       460.504       460.327       459.567       459.355       460.025       460.245        460.27       460.224       460.317        460.34
       460.586       460.601       461.493       462.059       462.103       461.055       460.882       460.867       460.793       460.676       460.312       460.063       460.218       460.218       460.119
       460.167       460.205       460.216       460.283       460.349       460.407       460.408       460.358       460.361       460.412       460.513       460.725         462.1       465.831       466.723
       466.724       466.885       467.025       467.134       467.199       467.158       467.003       466.832       466.711       466.611       466.798       467.188        468.69        468.95       470.609
       472.718       474.439       476.931       480.762       484.584       488.993       496.665       498.376       501.915       505.018       506.126       506.181       506.206       506.261       506.282
        506.18       505.987       505.828       505.697       505.468       505.309       505.007       504.686       504.504       504.226       503.625       502.714         502.3       501.631       501.342
       501.326       501.227       501.482       501.718       502.073       502.452       502.845        503.32       503.802       504.281       504.669        505.66       506.731       507.653       508.115
        508.56       508.989       509.369       509.654       509.904       510.148       510.416       510.599       510.808       510.977       511.136       511.344       511.529       511.721       511.919
       512.097        512.29       512.505       512.539       512.697
       475.739       475.566       475.285         475.3       475.105       475.129        475.13       475.049       475.177       476.113       476.155        475.58       475.302       475.269       475.256
        475.39       475.399       475.629       475.609        475.58       475.445       475.366       475.026       474.361       473.726       473.591       473.524       473.456       473.398        473.36
       473.411        473.35       473.426       473.398       472.798       472.036       472.018        472.76       473.153       473.209       473.234       473.399       473.498       473.544       473.648
       473.587       473.155       471.098       469.323       468.052       467.187       466.826       466.886        466.91       467.087        467.15        467.12       467.082       467.085       467.048
       467.006        466.95       466.918         466.8       466.653       466.322       466.371       466.116       466.082       466.095       466.073       466.143       466.019       465.528       463.613
       461.617       461.095       460.882       460.715       460.534       460.403       460.385       460.429       460.355       460.225       460.243        460.19       460.149       460.163       460.149
       460.194       460.222       460.253        460.21       460.334       460.149       460.489       460.416       460.291       459.594       458.566       458.667       458.605       458.747       458.627
       458.525        458.84       459.628       459.652       459.697       459.742       459.815        459.81       459.775       459.781       459.834       459.837       459.813       459.712       459.709
       459.823       459.795       459.803       459.887       460.115       459.657       459.511       459.409       459.961        460.05       460.145       460.134       460.091       460.121       460.231
       460.327       460.362       460.366       460.417       460.214       460.301       460.272       460.054       458.695       460.274        460.55       460.562       460.224        460.41       460.602
       460.772       460.804       460.822        461.14       462.099       462.268       460.865       460.901       460.745       460.657       460.571       460.592       460.703       460.311       460.179
       460.182       460.229       460.229       460.286       460.354       460.409       460.407       460.348       460.357       460.349       460.268       460.253       461.335       464.611        466.69
       466.721       466.882       467.063       467.231       467.269       467.229        467.12       466.927       466.799       466.663       466.705       466.832       467.615       468.534       469.787
       471.164       472.635       475.054       478.562       482.215       486.021       490.371       494.088       499.232       503.036       505.696       505.953       506.045       506.183       506.339
       506.215        506.02       505.968       505.763       505.569       505.387       505.348       504.906       504.697       504.516        504.11       503.346       502.499       502.099       501.849
       501.795       501.639       501.652       501.849       502.063       502.362       502.697       503.091       503.539       504.125       504.533       505.389         506.4        507.49       508.176
       508.698        509.12       509.457       509.735       509.995       510.228       510.469       510.681       510.833       511.037       511.203       511.404       511.545       511.741       511.963
       512.071        512.27        512.45       512.547       512.682
       475.747         475.4       475.498       475.476        475.22        475.26       475.119       475.115        475.32       476.087       476.197       475.587        475.34       475.328       475.295
       475.579       475.456       475.668       475.765       475.666       475.501        475.42       475.043       474.402       473.765       473.664        473.52       473.513       473.488       473.412
       473.411       473.362       473.365       473.458       472.802       471.605       471.583       472.523        473.03       473.073       473.216       473.332        473.38       473.529       473.658
       473.667       473.437       472.287       469.973        468.56       467.573       466.965       466.867       466.907       467.016       467.201       467.188       467.128         467.1       467.092
       467.042       466.988       466.925       466.857       466.696       466.376       466.298       466.198       466.108        466.11       466.149       466.225       466.086       465.186       463.025
       461.711       461.313       461.077       460.813       460.583       460.523       460.422        460.48       460.448       460.289       460.246       460.246       460.273       460.061       460.205
       460.222       460.284       460.409       460.321         460.4         460.3       460.395        460.19       460.144       459.399       458.626       458.478       458.632       458.712       458.637
       458.512       459.158       459.628       459.741       459.751       459.797       459.873        459.82         459.8       459.829       459.883       459.912       459.934       459.759       459.746
       459.788       459.753       459.794       459.904       460.103       459.633       459.544        459.36       459.873       460.058       460.096       460.149       460.141        460.14       460.236
       460.369         460.4       460.369       460.342       460.223       460.308        460.22       460.204        458.54       460.273       460.357        460.35       460.346        460.38       460.613
       460.741       460.778       460.757       460.621       460.515       462.222        462.81       460.895       460.834       461.084        460.89       461.057       461.091       460.417       460.251
       460.181       460.299        460.27       460.299       460.361       460.405       460.407       460.347       460.296        460.32       459.964       459.209       459.683        462.71       465.508
       466.552       466.892       467.109       467.275       467.344       467.324       467.244        467.06       466.934         466.8       466.841       466.941       466.987       467.983       468.585
       469.547       471.215       473.686       476.383       480.331       484.199       487.463       490.985       496.214       500.792       504.027       505.547        505.78       506.111       506.255
       506.383        506.29       506.288       505.929       505.684       505.514       505.357       505.029        504.79       504.658       504.419       503.832       502.718       502.723       502.247
       502.004       501.996       502.039       502.076       502.247       502.477       502.684       503.002       503.415       503.998       504.426       504.961       505.792       506.772       508.021
       508.885       509.261       509.611       509.823        510.07       510.312       510.526        510.72       510.882        511.05       511.214       511.412       511.536       511.771       511.936
       512.069       512.281       512.433       512.527       512.681
       475.685       475.381       474.956       475.351       475.396       475.344       475.244       475.279       475.485       475.988       476.218       475.566        475.35       475.293       475.264
       475.354       475.348       475.361       475.545       475.655       475.454       475.283       475.058       474.526       473.754       473.691       473.606       473.581       473.528        473.45
        473.39       473.362       473.319       473.536       473.341       472.504        472.49       472.722       472.906       473.057       473.173       473.239       473.396       473.543       473.645
       473.675       473.503       473.163       470.905       469.259       468.076       467.296       466.942       466.937       466.935       467.177       467.248       467.217       467.135       467.108
       467.068       467.036       466.965       466.865        466.66       466.435       466.396       466.245       466.184       466.147       466.197       466.328       465.838       464.145        462.47
        461.83       461.459       461.086       460.775       460.484       460.362       460.378       460.411       460.341        460.36       460.364       460.434       460.264       460.149        460.22
       460.186        460.24       460.412       460.532       460.585       460.499        460.18       458.787       458.687       459.981       458.553       458.371       458.684       458.712        458.72
       458.581       459.638       459.729       459.711        459.76       459.775       459.799       459.842       459.807       459.893       459.932       459.975       459.985       459.836       459.777
       459.804       459.796         459.9       459.967       460.182       459.561       459.812       459.551       459.755       460.051       460.152       460.182       460.165       460.147       460.242
        460.38       460.399       460.428        460.22       460.183       460.458       460.156       459.899       458.631       460.175       460.478       460.312        460.31       460.613       460.425
       460.625       460.842       460.895       460.974        460.61       460.909       463.173       462.721       461.529       460.892       460.891       460.897       460.841       460.535       460.336
       460.221       460.318       460.281       460.317        460.36       460.385        460.37       460.327       460.335       460.369       460.023       459.303       459.219       459.576       463.607
       465.928        466.85       467.135       467.318       467.417       467.407       467.308       467.213       467.085       466.955       466.897       466.938       466.971       467.027       467.788
       468.476       469.824       471.567        474.73       478.292       481.538       485.079       488.854       493.157       498.878       502.846       505.279       505.804       505.978       506.174
       506.353       506.336       506.206       506.018       505.847       505.612       505.437       505.285       504.931       504.771       504.601       504.437       503.846       503.035       502.687
       502.461       502.332       502.183        502.24       502.399       502.533       502.744       503.013       503.366       503.777       504.226       504.504       505.138       505.719       505.366
       506.403       508.593        509.84       509.991       510.178       510.353       510.585       510.757       510.934       511.076       511.286       511.397       511.563       511.767       511.957
       512.068       512.262       512.384       512.508       512.653
       475.439       475.575       475.137       474.469       475.113       475.273       475.263        475.32       475.552       475.745       476.256        475.68       475.395       475.372       475.331
       475.416       475.384       475.223       475.289       475.453       475.377       475.363       475.122       474.644       473.816       473.705       473.598       473.547       473.462       473.394
       473.348       473.344       473.341       473.268       473.193        473.19       473.149       473.151       473.144       473.176       473.207       473.313       473.466       473.541       473.683
       473.687       473.548       473.353        472.42       470.029       468.711        467.69       467.186       466.988        466.94       467.046       467.309       467.249       467.168         467.1
        467.05       467.013       466.963       466.831       466.585       466.441       466.393       466.329       466.303       466.259       466.198       466.379       465.065       463.291       462.451
        461.94       461.603       460.375        459.72       459.922       460.323       460.278       460.344        460.36       460.397       460.353       460.403       460.263       460.049        460.26
       460.392       460.256       460.378       460.449       460.456        460.45       460.056        460.32       460.406       459.911       458.153       458.298       458.685       458.734       458.834
        458.82       459.661       459.758       459.755       459.782       459.831       459.797       459.809       459.894        459.94       459.972       460.008       460.016       459.923       459.841
       459.826        459.86       460.011       460.056       459.934       459.518       459.924       459.752       459.683       459.906        460.19       460.227       460.273       460.221       460.227
       460.302       460.399       460.449       460.211        460.25       460.353       460.374       460.066        458.63       460.232       460.296       460.469        460.52       460.453       460.484
       460.577       460.635       460.867       461.113       460.908       461.464       463.279       463.541       463.091       461.019        460.97       460.971       460.914       460.727        460.02
       460.306       460.362       460.316        460.34        460.33       460.362       460.338       460.327       460.263       460.251       460.222       459.821       459.579       460.009       461.437
       464.727       466.929       467.137       467.372       467.482       467.463       467.407       467.245       467.094        467.02           467        466.89       466.859       466.966       467.081
       468.115       468.546       470.415       473.259       476.193       479.128       482.667       485.937       491.293       496.649       500.928       503.361       505.079       505.896       506.179
       506.689       506.471        506.25       506.134       506.064       505.779       505.626       505.362       505.146       504.988       505.078       504.501       503.803       503.365       503.083
        502.84        502.82       502.689       502.576       502.549       502.635       502.845       503.082       503.311       503.746       504.091       504.357       504.695       504.946       504.723
       505.169       507.041       509.601       510.155       510.268         510.4       510.621       510.773       510.938       511.096       511.286       511.402       511.606       511.787       511.946
       512.041       512.298       512.343       512.501       512.599
       475.347       475.474       475.633       475.002       474.103       474.546       475.289       475.378       475.519       475.657       476.206       475.783       475.541       475.489       475.531
       475.491       475.594       475.528       475.333       475.418       475.452       475.492       475.334       474.983       474.528       473.765       473.674       473.584       473.478       473.425
       473.402       473.381       473.373       473.372       473.351       473.299        473.28       473.306       473.312       473.375       473.432       473.363       473.495       473.576       473.701
       473.708       473.613       473.473       473.237       471.071       469.452       468.237       467.406       467.084        466.95       466.936       467.219       467.231        467.14       467.061
        467.01       466.985         466.9       466.694       466.466       466.405       466.419       466.399       466.382       466.416       466.397       465.988       463.835       463.147       462.671
       462.221       460.602       459.804       459.768       459.974         460.2        460.38       460.212       460.342       460.352       460.308       460.215       460.164       460.143       460.532
       460.517       460.252        460.15       460.207       460.272       460.304       460.106       460.047       460.164        459.88       458.223       458.205        458.56       458.748       458.959
       459.017        459.75       459.819       459.801       459.808       459.827       459.846        459.85       459.932       459.964       460.022       460.031       460.068       459.996       459.898
       459.825       459.941       459.937       459.994       459.863       459.513       459.921       459.934       459.744        459.89       460.152       460.232         460.3       460.248       460.228
       460.323       460.381        460.42       460.212        460.25       460.243       460.388       460.057       458.695       460.276       460.343       460.227       460.228       460.327       460.524
       460.484       460.415       460.902       461.022       461.512       463.068       463.275       463.636       462.372       461.332       461.071       461.004       460.907       460.856       460.441
       460.435       460.432       460.377       460.321       460.305       460.268       460.272       460.241       460.319       460.289       460.294       460.156       459.905       460.314       461.468
       461.619       466.127       467.136       467.445       467.547       467.494       467.364       467.226       467.129       467.106       467.064       467.032       466.908       466.903       466.921
       466.958       468.623       468.959       471.658       474.295       476.993       480.123       483.426        485.17       494.303        497.35        500.35       502.956       505.232       506.081
       506.338       506.416       506.384       506.235       506.133       506.003       505.704       505.615        505.42       505.009       504.767         504.5       504.095       503.756       503.473
       503.303       503.303       503.304        503.19       503.062        502.96       503.029       503.163       503.417       503.738       504.058       504.362        504.63       504.927       504.888
       504.972       505.626       508.135       510.226       510.424       510.429       510.607       510.746       510.904        511.06       511.226       511.388       511.577       511.727       511.925
       511.995       512.241       512.307        512.45       512.585
       475.339       475.384       475.497       475.672       474.989       473.705       473.725       474.883       475.386       475.734       476.066       475.714       475.633       475.628       475.647