# Layer-Property flow template file for MODFLOW-2000/2005 (written by Pablo Merchán-Rivera)
        50    -1E+30         0
 1
 0
    1
 0
 0
        31         1(260G14.0)                   -1  10. HK of layer 1
 1.0000000E-05 1.0000000E-05 1.0000000E-05 1.0000000E-05 1.0000000E-05 1.0000000E-05 1.0000000E-05 1.0000000E-05 1.0000000E-05 1.0000000E-05 1.0000000E-05 1.0000000E-05 1.0000000E-05 1.0000000E-05 1.0000000E-05 1.0000000E-05 1.0000000E-05 1.0000000E-05 1.0000000E-05 1.0000000E-05 1.0000000E-05 1.0000000E-05 1.0000000E-05 1.0000000E-05 1.0000000E-05 1.0000000E-05 1.0000000E-05 1.0000000E-05 1.0000000E-05 1.0000000E-05 1.0000000E-05 1.0000000E-05 1.0000000E-05 1.0000000E-05 1.0000000E-05 1.0000000E-05 1.0000000E-05 1.0000000E-05 1.0000000E-05 1.0000000E-05 1.0000000E-05 1.0000000E-05 1.0000000E-05 1.0000000E-05 1.0000000E-05 1.0000000E-05 1.0000000E-05 1.0000000E-05 1.0000000E-05 1.0000000E-05 1.0000000E-05 1.0000000E-05 1.0000000E-05 1.0000000E-04 1.0000000E-04 1.0000000E-04 1.0000000E-04 1.0000000E-04 1.0000000E-04 1.0000000E-04 1.0000000E-04 1.0000000E-04 1.0000000E-04 1.0000000E-04 1.0000000E-04 1.0000000E-04 1.0000000E-04 1.0000000E-04 1.0000000E-04 1.0000000E-04 1.0000000E-04 1.0000000E-04 1.0000000E-04 1.0000000E-04 1.0000000E-04 1.0000000E-04 1.0000000E-04 1.0000000E-04 1.0000000E-04 1.0000000E-04 1.0000000E-04 1.0000000E-04 1.0000000E-04 1.0000000E-04 1.0000000E-04 1.0000000E-04 1.0000000E-04 1.0000000E-04 1.0000000E-04 1.0000000E-04 1.0000000E-04 1.0000000E-04 1.0000000E-04 1.0000000E-04 1.0000000E-04 1.0000000E-04 1.0000000E-04 1.0000000E-04 1.0000000E-04 1.0000000E-04 1.0000000E-04 1.0000000E-04 1.0000000E-04 1.0000000E-04 1.0000000E-04 1.0000000E-04 1.0000000E-04 1.0000000E-04 1.0000000E-04 1.0000000E-04 1.0000000E-04 1.0000000E-04 1.0000000E-04 1.0000000E-04 1.0000000E-04 1.0000000E-04 1.0000000E-04 1.0000000E-04 1.0000000E-04 1.0000000E-04 1.0000000E-04 1.0000000E-04 1.0000000E-04 1.0000000E-04 1.0000000E-04 1.0000000E-04 1.0000000E-04 1.0000000E-04 1.0000000E-04 1.0000000E-04 1.0000000E-04 1.0000000E-04 1.0000000E-04 1.0000000E-04 1.0000000E-04 1.0000000E-04 1.0000000E-04 1.0000000E-04 1.0000000E-04 1.0000000E-04 1.0000000E-04 1.0000000E-04 1.0000000E-04 1.0000000E-04 1.0000000E-04 1.0000000E-04 1.0000000E-04 1.0000000E-04 1.0000000E-04 1.0000000E-04 1.0000000E-04 1.0000000E-04 1.0000000E-04 1.0000000E-04 1.0000000E-04 1.0000000E-02 1.0000000E-02 1.0000000E-02 1.0000000E-02 1.0000000E-02 1.0000000E-02 1.0000000E-02 1.0000000E-02 1.0000000E-02 1.0000000E-02 1.0000000E-02 1.0000000E-02 1.0000000E-02 1.0000000E-02 1.0000000E-02 1.0000000E-02 1.0000000E-02 1.0000000E-02 1.0000000E-02 1.0000000E-02 1.0000000E-02 1.0000000E-02 1.0000000E-02 1.0000000E-02 1.0000000E-04 1.0000000E-04 1.0000000E-04 1.0000000E-04 1.0000000E-04 1.0000000E-04 1.0000000E-04 1.0000000E-04 1.0000000E-04 1.0000000E-04 1.0000000E-04 1.0000000E-04 1.0000000E-04 1.0000000E-04 1.0000000E-04 1.0000000E-04 1.0000000E-04 1.0000000E-04 1.0000000E-04 1.0000000E-04 1.0000000E-04 1.0000000E-04 1.0000000E-04 1.0000000E-04 1.0000000E-04 1.0000000E-04 1.0000000E-04 1.0000000E-04 1.0000000E-04 1.0000000E-04 1.0000000E-04 1.0000000E-04 1.0000000E-04 1.0000000E-04 1.0000000E-04 1.0000000E-04 1.0000000E-04 1.0000000E-04 1.0000000E-04 1.0000000E-04 1.0000000E-04 1.0000000E-04 1.0000000E-04 1.0000000E-04 1.0000000E-04 1.0000000E-04 1.0000000E-04 1.0000000E-04 1.0000000E-04 1.0000000E-04 1.0000000E-04 1.0000000E-04 1.0000000E-04 1.0000000E-04 1.0000000E-04 1.0000000E-04 1.0000000E-04 1.0000000E-04 1.0000000E-04 1.0000000E-04 1.0000000E-04 1.0000000E-04 1.0000000E-04 1.0000000E-04 1.0000000E-04 1.0000000E-04 1.0000000E-04 1.0000000E-04 1.0000000E-04 1.0000000E-04 1.0000000E-04 1.0000000E-04 1.0000000E-04 1.0000000E-04 1.0000000E-04 1.0000000E-04 1.0000000E-04 1.0000000E-04 1.0000000E-04 1.0000000E-04 1.0000000E-04
 1.0000000E-05 1.0000000E-05 1.0000000E-05 1.0000000E-05 1.0000000E-05 1.0000000E-05 1.0000000E-05 1.0000000E-05 1.0000000E-05 1.0000000E-05 1.0000000E-05 1.0000000E-05 1.0000000E-05 1.0000000E-05 1.0000000E-05 1.0000000E-05 1.0000000E-05 1.0000000E-05 1.0000000E-05 1.0000000E-05 1.0000000E-05 1.0000000E-05 1.0000000E-05 1.0000000E-05 1.0000000E-05 1.0000000E-05 1.0000000E-05 1.0000000E-05 1.0000000E-05 1.0000000E-05 1.0000000E-05 1.0000000E-05 1.0000000E-05 1.0000000E-05 1.0000000E-05 1.0000000E-05 1.0000000E-05 1.0000000E-05 1.0000000E-05 1.0000000E-05 1.0000000E-05 1.0000000E-05 1.0000000E-05 1.0000000E-05 1.0000000E-05 1.0000000E-05 1.0000000E-05 1.0000000E-05 1.0000000E-05 1.0000000E-05 1.0000000E-05 1.0000000E-05 1.0000000E-05 1.0000000E-05 1.0000000E-04 1.0000000E-04 1.0000000E-04 1.0000000E-04 1.0000000E-04 1.0000000E-04 1.0000000E-04 1.0000000E-04 1.0000000E-04 1.0000000E-04 1.0000000E-04 1.0000000E-04 1.0000000E-04 1.0000000E-04 1.0000000E-04 1.0000000E-04 1.0000000E-04 1.0000000E-04 1.0000000E-04 1.0000000E-04 1.0000000E-04 1.0000000E-04 1.0000000E-04 1.0000000E-04 1.0000000E-04 1.0000000E-04 1.0000000E-04 1.0000000E-04 1.0000000E-04 1.0000000E-04 1.0000000E-04 1.0000000E-04 1.0000000E-04 1.0000000E-04 1.0000000E-04 1.0000000E-04 1.0000000E-04 1.0000000E-04 1.0000000E-04 1.0000000E-04 1.0000000E-04 1.0000000E-04 1.0000000E-04 1.0000000E-04 1.0000000E-04 1.0000000E-04 1.0000000E-04 1.0000000E-04 1.0000000E-04 1.0000000E-04 1.0000000E-04 1.0000000E-04 1.0000000E-04 1.0000000E-04 1.0000000E-04 1.0000000E-04 1.0000000E-04 1.0000000E-04 1.0000000E-04 1.0000000E-04 1.0000000E-04 1.0000000E-04 1.0000000E-04 1.0000000E-04 1.0000000E-04 1.0000000E-04 1.0000000E-04 1.0000000E-04 1.0000000E-04 1.0000000E-04 1.0000000E-04 1.0000000E-04 1.0000000E-04 1.0000000E-04 1.0000000E-04 1.0000000E-04 1.0000000E-04 1.0000000E-04 1.0000000E-04 1.0000000E-04 1.0000000E-04 1.0000000E-04 1.0000000E-04 1.0000000E-04 1.0000000E-04 1.0000000E-04 1.0000000E-04 1.0000000E-04 1.0000000E-04 1.0000000E-04 1.0000000E-04 1.0000000E-04 1.0000000E-04 1.0000000E-04 1.0000000E-04 1.0000000E-04 1.0000000E-04 1.0000000E-04 1.0000000E-04 1.0000000E-04 1.0000000E-04 1.0000000E-02 1.0000000E-02 1.0000000E-02 1.0000000E-02 1.0000000E-02 1.0000000E-02 1.0000000E-02 1.0000000E-02 1.0000000E-02 1.0000000E-02 1.0000000E-02 1.0000000E-02 1.0000000E-02 1.0000000E-02 1.0000000E-02 1.0000000E-02 1.0000000E-02 1.0000000E-02 1.0000000E-02 1.0000000E-02 1.0000000E-02 1.0000000E-02 1.0000000E-02 1.0000000E-02 1.0000000E-04 1.0000000E-04 1.0000000E-04 1.0000000E-04 1.0000000E-04 1.0000000E-04 1.0000000E-04 1.0000000E-04 1.0000000E-04 1.0000000E-04 1.0000000E-04 1.0000000E-04 1.0000000E-04 1.0000000E-04 1.0000000E-04 1.0000000E-04 1.0000000E-04 1.0000000E-04 1.0000000E-04 1.0000000E-04 1.0000000E-04 1.0000000E-04 1.0000000E-04 1.0000000E-04 1.0000000E-04 1.0000000E-04 1.0000000E-04 1.0000000E-04 1.0000000E-04 1.0000000E-04 1.0000000E-04 1.0000000E-04 1.0000000E-04 1.0000000E-04 1.0000000E-04 1.0000000E-04 1.0000000E-04 1.0000000E-04 1.0000000E-04 1.0000000E-04 1.0000000E-04 1.0000000E-04 1.0000000E-04 1.0000000E-04 1.0000000E-04 1.0000000E-04 1.0000000E-04 1.0000000E-04 1.0000000E-04 1.0000000E-04 1.0000000E-04 1.0000000E-04 1.0000000E-04 1.0000000E-04 1.0000000E-04 1.0000000E-04 1.0000000E-04 1.0000000E-04 1.0000000E-04 1.0000000E-04 1.0000000E-04 1.0000000E-04 1.0000000E-04 1.0000000E-04 1.0000000E-04 1.0000000E-04 1.0000000E-04 1.0000000E-04 1.0000000E-04 1.0000000E-04 1.0000000E-04 1.0000000E-04 1.0000000E-04 1.0000000E-04 1.0000000E-04 1.0000000E-04 1.0000000E-04 1.0000000E-04 1.0000000E-04 1.0000000E-04 1.0000000E-04
 1.0000000E-05 1.0000000E-05 1.0000000E-05 1.0000000E-05 1.0000000E-05 1.0000000E-05 1.0000000E-05 1.0000000E-05 1.0000000E-05 1.0000000E-05 1.0000000E-05 1.0000000E-05 1.0000000E-05 1.0000000E-05 1.0000000E-05 1.0000000E-05 1.0000000E-05 1.0000000E-05 1.0000000E-05 1.0000000E-05 1.0000000E-05 1.0000000E-05 1.0000000E-05 1.0000000E-05 1.0000000E-05 1.0000000E-05 1.0000000E-05 1.0000000E-05 1.0000000E-05 1.0000000E-05 1.0000000E-05 1.0000000E-05 1.0000000E-05 1.0000000E-05 1.0000000E-05 1.0000000E-05 1.0000000E-05 1.0000000E-05 1.0000000E-05 1.0000000E-05 1.0000000E-05 1.0000000E-05 1.0000000E-05 1.0000000E-05 1.0000000E-05 1.0000000E-05 1.0000000E-05 1.0000000E-05 1.0000000E-05 1.0000000E-05 1.0000000E-05 1.0000000E-05 1.0000000E-05 1.0000000E-05 1.0000000E-04 1.0000000E-04 1.0000000E-04 1.0000000E-04 1.0000000E-04 1.0000000E-04 1.0000000E-04 1.0000000E-04 1.0000000E-04 1.0000000E-04 1.0000000E-04 1.0000000E-04 1.0000000E-04 1.0000000E-04 1.0000000E-04 1.0000000E-04 1.0000000E-04 1.0000000E-04 1.0000000E-04 1.0000000E-04 1.0000000E-04 1.0000000E-04 1.0000000E-04 1.0000000E-04 1.0000000E-04 1.0000000E-04 1.0000000E-04 1.0000000E-04 1.0000000E-04 1.0000000E-04 1.0000000E-04 1.0000000E-04 1.0000000E-04 1.0000000E-04 1.0000000E-04 1.0000000E-04 1.0000000E-04 1.0000000E-04 1.0000000E-04 1.0000000E-04 1.0000000E-04 1.0000000E-04 1.0000000E-04 1.0000000E-04 1.0000000E-04 1.0000000E-04 1.0000000E-04 1.0000000E-04 1.0000000E-04 1.0000000E-04 1.0000000E-04 1.0000000E-04 1.0000000E-04 1.0000000E-04 1.0000000E-04 1.0000000E-04 1.0000000E-04 1.0000000E-04 1.0000000E-04 1.0000000E-04 1.0000000E-04 1.0000000E-04 1.0000000E-04 1.0000000E-04 1.0000000E-04 1.0000000E-04 1.0000000E-04 1.0000000E-04 1.0000000E-04 1.0000000E-04 1.0000000E-04 1.0000000E-04 1.0000000E-04 1.0000000E-04 1.0000000E-04 1.0000000E-04 1.0000000E-04 1.0000000E-04 1.0000000E-04 1.0000000E-04 1.0000000E-04 1.0000000E-04 1.0000000E-04 1.0000000E-04 1.0000000E-04 1.0000000E-04 1.0000000E-04 1.0000000E-04 1.0000000E-04 1.0000000E-04 1.0000000E-04 1.0000000E-04 1.0000000E-04 1.0000000E-04 1.0000000E-04 1.0000000E-04 1.0000000E-04 1.0000000E-04 1.0000000E-04 1.0000000E-04 1.0000000E-04 1.0000000E-04 1.0000000E-02 1.0000000E-02 1.0000000E-02 1.0000000E-02 1.0000000E-02 1.0000000E-02 1.0000000E-02 1.0000000E-02 1.0000000E-02 1.0000000E-02 1.0000000E-02 1.0000000E-02 1.0000000E-02 1.0000000E-02 1.0000000E-02 1.0000000E-02 1.0000000E-02 1.0000000E-02 1.0000000E-02 1.0000000E-02 1.0000000E-02 1.0000000E-02 1.0000000E-02 1.0000000E-02 1.0000000E-04 1.0000000E-04 1.0000000E-04 1.0000000E-04 1.0000000E-04 1.0000000E-04 1.0000000E-04 1.0000000E-04 1.0000000E-04 1.0000000E-04 1.0000000E-04 1.0000000E-04 1.0000000E-04 1.0000000E-04 1.0000000E-04 1.0000000E-04 1.0000000E-04 1.0000000E-04 1.0000000E-04 1.0000000E-04 1.0000000E-04 1.0000000E-04 1.0000000E-04 1.0000000E-04 1.0000000E-04 1.0000000E-04 1.0000000E-04 1.0000000E-04 1.0000000E-04 1.0000000E-04 1.0000000E-04 1.0000000E-04 1.0000000E-04 1.0000000E-04 1.0000000E-04 1.0000000E-04 1.0000000E-04 1.0000000E-04 1.0000000E-04 1.0000000E-04 1.0000000E-04 1.0000000E-04 1.0000000E-04 1.0000000E-04 1.0000000E-04 1.0000000E-04 1.0000000E-04 1.0000000E-04 1.0000000E-04 1.0000000E-04 1.0000000E-04 1.0000000E-04 1.0000000E-04 1.0000000E-04 1.0000000E-04 1.0000000E-04 1.0000000E-04 1.0000000E-04 1.0000000E-04 1.0000000E-04 1.0000000E-04 1.0000000E-04 1.0000000E-04 1.0000000E-04 1.0000000E-04 1.0000000E-04 1.0000000E-04 1.0000000E-04 1.0000000E-04 1.0000000E-04 1.0000000E-04 1.0000000E-04 1.0000000E-04 1.0000000E-04 1.0000000E-04 1.0000000E-04 1.0000000E-04 1.0000000E-04 1.0000000E-04 1.0000000E-04
 1.0000000E-05 1.0000000E-05 1.0000000E-05 1.0000000E-05 1.0000000E-05 1.0000000E-05 1.0000000E-05 1.0000000E-05 1.0000000E-05 1.0000000E-05 1.0000000E-05 1.0000000E-05 1.0000000E-05 1.0000000E-05 1.0000000E-05 1.0000000E-05 1.0000000E-05 1.0000000E-05 1.0000000E-05 1.0000000E-05 1.0000000E-05 1.0000000E-05 1.0000000E-05 1.0000000E-05 1.0000000E-05 1.0000000E-05 1.0000000E-05 1.0000000E-05 1.0000000E-05 1.0000000E-05 1.0000000E-05 1.0000000E-05 1.0000000E-05 1.0000000E-05 1.0000000E-05 1.0000000E-05 1.0000000E-05 1.0000000E-05 1.0000000E-05 1.0000000E-05 1.0000000E-05 1.0000000E-05 1.0000000E-05 1.0000000E-05 1.0000000E-05 1.0000000E-05 1.0000000E-05 1.0000000E-05 1.0000000E-05 1.0000000E-05 1.0000000E-05 1.0000000E-05 1.0000000E-05 1.0000000E-05 1.0000000E-04 1.0000000E-04 1.0000000E-04 1.0000000E-04 1.0000000E-04 1.0000000E-04 1.0000000E-04 1.0000000E-04 1.0000000E-04 1.0000000E-04 1.0000000E-04 1.0000000E-04 1.0000000E-04 1.0000000E-04 1.0000000E-04 1.0000000E-04 1.0000000E-04 1.0000000E-04 1.0000000E-04 1.0000000E-04 1.0000000E-04 1.0000000E-04 1.0000000E-04 1.0000000E-04 1.0000000E-04 1.0000000E-04 1.0000000E-04 1.0000000E-04 1.0000000E-04 1.0000000E-04 1.0000000E-04 1.0000000E-04 1.0000000E-04 1.0000000E-04 1.0000000E-04 1.0000000E-04 1.0000000E-04 1.0000000E-04 1.0000000E-04 1.0000000E-04 1.0000000E-04 1.0000000E-04 1.0000000E-04 1.0000000E-04 1.0000000E-04 1.0000000E-04 1.0000000E-04 1.0000000E-04 1.0000000E-04 1.0000000E-04 1.0000000E-04 1.0000000E-04 1.0000000E-04 1.0000000E-04 1.0000000E-04 1.0000000E-04 1.0000000E-04 1.0000000E-04 1.0000000E-04 1.0000000E-04 1.0000000E-04 1.0000000E-04 1.0000000E-04 1.0000000E-04 1.0000000E-04 1.0000000E-04 1.0000000E-04 1.0000000E-04 1.0000000E-04 1.0000000E-04 1.0000000E-04 1.0000000E-04 1.0000000E-04 1.0000000E-04 1.0000000E-04 1.0000000E-04 1.0000000E-04 1.0000000E-04 1.0000000E-04 1.0000000E-04 1.0000000E-04 1.0000000E-04 1.0000000E-04 1.0000000E-04 1.0000000E-04 1.0000000E-04 1.0000000E-04 1.0000000E-04 1.0000000E-04 1.0000000E-04 1.0000000E-04 1.0000000E-04 1.0000000E-04 1.0000000E-04 1.0000000E-04 1.0000000E-04 1.0000000E-04 1.0000000E-04 1.0000000E-04 1.0000000E-04 1.0000000E-04 1.0000000E-04 1.0000000E-02 1.0000000E-02 1.0000000E-02 1.0000000E-02 1.0000000E-02 1.0000000E-02 1.0000000E-02 1.0000000E-02 1.0000000E-02 1.0000000E-02 1.0000000E-02 1.0000000E-02 1.0000000E-02 1.0000000E-02 1.0000000E-02 1.0000000E-02 1.0000000E-02 1.0000000E-02 1.0000000E-02 1.0000000E-02 1.0000000E-02 1.0000000E-02 1.0000000E-02 1.0000000E-02 1.0000000E-02 1.0000000E-04 1.0000000E-04 1.0000000E-04 1.0000000E-04 1.0000000E-04 1.0000000E-04 1.0000000E-04 1.0000000E-04 1.0000000E-04 1.0000000E-04 1.0000000E-04 1.0000000E-04 1.0000000E-04 1.0000000E-04 1.0000000E-04 1.0000000E-04 1.0000000E-04 1.0000000E-04 1.0000000E-04 1.0000000E-04 1.0000000E-04 1.0000000E-04 1.0000000E-04 1.0000000E-04 1.0000000E-04 1.0000000E-04 1.0000000E-04 1.0000000E-04 1.0000000E-04 1.0000000E-04 1.0000000E-04 1.0000000E-04 1.0000000E-04 1.0000000E-04 1.0000000E-04 1.0000000E-04 1.0000000E-04 1.0000000E-04 1.0000000E-04 1.0000000E-04 1.0000000E-04 1.0000000E-04 1.0000000E-04 1.0000000E-04 1.0000000E-04 1.0000000E-04 1.0000000E-04 1.0000000E-04 1.0000000E-04 1.0000000E-04 1.0000000E-04 1.0000000E-04 1.0000000E-04 1.0000000E-04 1.0000000E-04 1.0000000E-04 1.0000000E-04 1.0000000E-04 1.0000000E-04 1.0000000E-04 1.0000000E-04 1.0000000E-04 1.0000000E-04 1.0000000E-04 1.0000000E-04 1.0000000E-04 1.0000000E-04 1.0000000E-04 1.0000000E-04 1.0000000E-04 1.0000000E-04 1.0000000E-04 1.0000000E-04 1.0000000E-04 1.0000000E-04 1.0000000E-04 1.0000000E-04 1.0000000E-04 1.0000000E-04
 1.0000000E-05 1.0000000E-05 1.0000000E-05 1.0000000E-05 1.0000000E-05 1.0000000E-05 1.0000000E-05 1.0000000E-05 1.0000000E-05 1.0000000E-05 1.0000000E-05 1.0000000E-05 1.0000000E-05 1.0000000E-05 1.0000000E-05 1.0000000E-05 1.0000000E-05 1.0000000E-05 1.0000000E-05 1.0000000E-05 1.0000000E-05 1.0000000E-05 1.0000000E-05 1.0000000E-05 1.0000000E-05 1.0000000E-05 1.0000000E-05 1.0000000E-05 1.0000000E-05 1.0000000E-05 1.0000000E-05 1.0000000E-05 1.0000000E-05 1.0000000E-05 1.0000000E-05 1.0000000E-05 1.0000000E-05 1.0000000E-05 1.0000000E-05 1.0000000E-05 1.0000000E-05 1.0000000E-05 1.0000000E-05 1.0000000E-05 1.0000000E-05 1.0000000E-05 1.0000000E-05 1.0000000E-05 1.0000000E-05 1.0000000E-05 1.0000000E-05 1.0000000E-05 1.0000000E-05 1.0000000E-05 1.0000000E-05 1.0000000E-04 1.0000000E-04 1.0000000E-04 1.0000000E-04 1.0000000E-04 1.0000000E-04 1.0000000E-04 1.0000000E-04 1.0000000E-04 1.0000000E-04 1.0000000E-04 1.0000000E-04 1.0000000E-04 1.0000000E-04 1.0000000E-04 1.0000000E-04 1.0000000E-04 1.0000000E-04 1.0000000E-04 1.0000000E-04 1.0000000E-04 1.0000000E-04 1.0000000E-04 1.0000000E-04 1.0000000E-04 1.0000000E-04 1.0000000E-04 1.0000000E-04 1.0000000E-04 1.0000000E-04 1.0000000E-04 1.0000000E-04 1.0000000E-04 1.0000000E-04 1.0000000E-04 1.0000000E-04 1.0000000E-04 1.0000000E-04 1.0000000E-04 1.0000000E-04 1.0000000E-04 1.0000000E-04 1.0000000E-04 1.0000000E-04 1.0000000E-04 1.0000000E-04 1.0000000E-04 1.0000000E-04 1.0000000E-04 1.0000000E-04 1.0000000E-04 1.0000000E-04 1.0000000E-04 1.0000000E-04 1.0000000E-04 1.0000000E-04 1.0000000E-04 1.0000000E-04 1.0000000E-04 1.0000000E-04 1.0000000E-04 1.0000000E-04 1.0000000E-04 1.0000000E-04 1.0000000E-04 1.0000000E-04 1.0000000E-04 1.0000000E-04 1.0000000E-04 1.0000000E-04 1.0000000E-04 1.0000000E-04 1.0000000E-04 1.0000000E-04 1.0000000E-04 1.0000000E-04 1.0000000E-04 1.0000000E-04 1.0000000E-04 1.0000000E-04 1.0000000E-04 1.0000000E-04 1.0000000E-04 1.0000000E-04 1.0000000E-04 1.0000000E-04 1.0000000E-04 1.0000000E-04 1.0000000E-04 1.0000000E-04 1.0000000E-04 1.0000000E-04 1.0000000E-04 1.0000000E-04 1.0000000E-04 1.0000000E-04 1.0000000E-04 1.0000000E-04 1.0000000E-04 1.0000000E-04 1.0000000E-04 1.0000000E-04 1.0000000E-02 1.0000000E-02 1.0000000E-02 1.0000000E-02 1.0000000E-02 1.0000000E-02 1.0000000E-02 1.0000000E-02 1.0000000E-02 1.0000000E-02 1.0000000E-02 1.0000000E-02 1.0000000E-02 1.0000000E-02 1.0000000E-02 1.0000000E-02 1.0000000E-02 1.0000000E-02 1.0000000E-02 1.0000000E-02 1.0000000E-02 1.0000000E-02 1.0000000E-02 1.0000000E-02 1.0000000E-02 1.0000000E-04 1.0000000E-04 1.0000000E-04 1.0000000E-04 1.0000000E-04 1.0000000E-04 1.0000000E-04 1.0000000E-04 1.0000000E-04 1.0000000E-04 1.0000000E-04 1.0000000E-04 1.0000000E-04 1.0000000E-04 1.0000000E-04 1.0000000E-04 1.0000000E-04 1.0000000E-04 1.0000000E-04 1.0000000E-04 1.0000000E-04 1.0000000E-04 1.0000000E-04 1.0000000E-04 1.0000000E-04 1.0000000E-04 1.0000000E-04 1.0000000E-04 1.0000000E-04 1.0000000E-04 1.0000000E-04 1.0000000E-04 1.0000000E-04 1.0000000E-04 1.0000000E-04 1.0000000E-04 1.0000000E-04 1.0000000E-04 1.0000000E-04 1.0000000E-04 1.0000000E-04 1.0000000E-04 1.0000000E-04 1.0000000E-04 1.0000000E-04 1.0000000E-04 1.0000000E-04 1.0000000E-04 1.0000000E-04 1.0000000E-04 1.0000000E-04 1.0000000E-04 1.0000000E-04 1.0000000E-04 1.0000000E-04 1.0000000E-04 1.0000000E-04 1.0000000E-04 1.0000000E-04 1.0000000E-04 1.0000000E-04 1.0000000E-04 1.0000000E-04 1.0000000E-04 1.0000000E-04 1.0000000E-04 1.0000000E-04 1.0000000E-04 1.0000000E-04 1.0000000E-04 1.0000000E-04 1.0000000E-04 1.0000000E-04 1.0000000E-04 1.0000000E-04 1.0000000E-04 1.0000000E-04 1.0000000E-04
 1.0000000E-05 1.0000000E-05 1.0000000E-05 1.0000000E-05 1.0000000E-05 1.0000000E-05 1.0000000E-05 1.0000000E-05 1.0000000E-05 1.0000000E-05 1.0000000E-05 1.0000000E-05 1.0000000E-05 1.0000000E-05 1.0000000E-05 1.0000000E-05 1.0000000E-05 1.0000000E-05 1.0000000E-05 1.0000000E-05 1.0000000E-05 1.0000000E-05 1.0000000E-05 1.0000000E-05 1.0000000E-05 1.0000000E-05 1.0000000E-05 1.0000000E-05 1.0000000E-05 1.0000000E-05 1.0000000E-05 1.0000000E-05 1.0000000E-05 1.0000000E-05 1.0000000E-05 1.0000000E-05 1.0000000E-05 1.0000000E-05 1.0000000E-05 1.0000000E-05 1.0000000E-05 1.0000000E-05 1.0000000E-05 1.0000000E-05 1.0000000E-05 1.0000000E-05 1.0000000E-05 1.0000000E-05 1.0000000E-05 1.0000000E-05 1.0000000E-05 1.0000000E-05 1.0000000E-05 1.0000000E-05 1.0000000E-05 1.0000000E-04 1.0000000E-04 1.0000000E-04 1.0000000E-04 1.0000000E-04 1.0000000E-04 1.0000000E-04 1.0000000E-04 1.0000000E-04 1.0000000E-04 1.0000000E-04 1.0000000E-04 1.0000000E-04 1.0000000E-04 1.0000000E-04 1.0000000E-04 1.0000000E-04 1.0000000E-04 1.0000000E-04 1.0000000E-04 1.0000000E-04 1.0000000E-04 1.0000000E-04 1.0000000E-04 1.0000000E-04 1.0000000E-04 1.0000000E-04 1.0000000E-04 1.0000000E-04 1.0000000E-04 1.0000000E-04 1.0000000E-04 1.0000000E-04 1.0000000E-04 1.0000000E-04 1.0000000E-04 1.0000000E-04 1.0000000E-04 1.0000000E-04 1.0000000E-04 1.0000000E-04 1.0000000E-04 1.0000000E-04 1.0000000E-04 1.0000000E-04 1.0000000E-04 1.0000000E-04 1.0000000E-04 1.0000000E-04 1.0000000E-04 1.0000000E-04 1.0000000E-04 1.0000000E-04 1.0000000E-04 1.0000000E-04 1.0000000E-04 1.0000000E-04 1.0000000E-04 1.0000000E-04 1.0000000E-04 1.0000000E-04 1.0000000E-04 1.0000000E-04 1.0000000E-04 1.0000000E-04 1.0000000E-04 1.0000000E-04 1.0000000E-04 1.0000000E-04 1.0000000E-04 1.0000000E-04 1.0000000E-04 1.0000000E-04 1.0000000E-04 1.0000000E-04 1.0000000E-04 1.0000000E-04 1.0000000E-04 1.0000000E-04 1.0000000E-04 1.0000000E-04 1.0000000E-04 1.0000000E-04 1.0000000E-04 1.0000000E-04 1.0000000E-04 1.0000000E-04 1.0000000E-04 1.0000000E-04 1.0000000E-04 1.0000000E-04 1.0000000E-04 1.0000000E-04 1.0000000E-04 1.0000000E-04 1.0000000E-04 1.0000000E-04 1.0000000E-04 1.0000000E-04 1.0000000E-04 1.0000000E-04 1.0000000E-04 1.0000000E-02 1.0000000E-02 1.0000000E-02 1.0000000E-02 1.0000000E-02 1.0000000E-02 1.0000000E-02 1.0000000E-02 1.0000000E-02 1.0000000E-02 1.0000000E-02 1.0000000E-02 1.0000000E-02 1.0000000E-02 1.0000000E-02 1.0000000E-02 1.0000000E-02 1.0000000E-02 1.0000000E-02 1.0000000E-02 1.0000000E-02 1.0000000E-02 1.0000000E-02 1.0000000E-02 1.0000000E-02 1.0000000E-04 1.0000000E-04 1.0000000E-04 1.0000000E-04 1.0000000E-04 1.0000000E-04 1.0000000E-04 1.0000000E-04 1.0000000E-04 1.0000000E-04 1.0000000E-04 1.0000000E-04 1.0000000E-04 1.0000000E-04 1.0000000E-04 1.0000000E-04 1.0000000E-04 1.0000000E-04 1.0000000E-04 1.0000000E-04 1.0000000E-04 1.0000000E-04 1.0000000E-04 1.0000000E-04 1.0000000E-04 1.0000000E-04 1.0000000E-04 1.0000000E-04 1.0000000E-04 1.0000000E-04 1.0000000E-04 1.0000000E-04 1.0000000E-04 1.0000000E-04 1.0000000E-04 1.0000000E-04 1.0000000E-04 1.0000000E-04 1.0000000E-04 1.0000000E-04 1.0000000E-04 1.0000000E-04 1.0000000E-04 1.0000000E-04 1.0000000E-04 1.0000000E-04 1.0000000E-04 1.0000000E-04 1.0000000E-04 1.0000000E-04 1.0000000E-04 1.0000000E-04 1.0000000E-04 1.0000000E-04 1.0000000E-04 1.0000000E-04 1.0000000E-04 1.0000000E-04 1.0000000E-04 1.0000000E-04 1.0000000E-04 1.0000000E-04 1.0000000E-04 1.0000000E-04 1.0000000E-04 1.0000000E-04 1.0000000E-04 1.0000000E-04 1.0000000E-04 1.0000000E-04 1.0000000E-04 1.0000000E-04 1.0000000E-04 1.0000000E-04 1.0000000E-04 1.0000000E-04 1.0000000E-04 1.0000000E-04
 1.0000000E-05 1.0000000E-05 1.0000000E-05 1.0000000E-05 1.0000000E-05 1.0000000E-05 1.0000000E-05 1.0000000E-05 1.0000000E-05 1.0000000E-05 1.0000000E-05 1.0000000E-05 1.0000000E-05 1.0000000E-05 1.0000000E-05 1.0000000E-05 1.0000000E-05 1.0000000E-05 1.0000000E-05 1.0000000E-05 1.0000000E-05 1.0000000E-05 1.0000000E-05 1.0000000E-05 1.0000000E-05 1.0000000E-05 1.0000000E-05 1.0000000E-05 1.0000000E-05 1.0000000E-05 1.0000000E-05 1.0000000E-05 1.0000000E-05 1.0000000E-05 1.0000000E-05 1.0000000E-05 1.0000000E-05 1.0000000E-05 1.0000000E-05 1.0000000E-05 1.0000000E-05 1.0000000E-05 1.0000000E-05 1.0000000E-05 1.0000000E-05 1.0000000E-05 1.0000000E-05 1.0000000E-05 1.0000000E-05 1.0000000E-05 1.0000000E-05 1.0000000E-05 1.0000000E-05 1.0000000E-05 1.0000000E-05 1.0000000E-04 1.0000000E-04 1.0000000E-04 1.0000000E-04 1.0000000E-04 1.0000000E-04 1.0000000E-04 1.0000000E-04 1.0000000E-04 1.0000000E-04 1.0000000E-04 1.0000000E-04 1.0000000E-04 1.0000000E-04 1.0000000E-04 1.0000000E-04 1.0000000E-04 1.0000000E-04 1.0000000E-04 1.0000000E-04 1.0000000E-04 1.0000000E-04 1.0000000E-04 1.0000000E-04 1.0000000E-04 1.0000000E-04 1.0000000E-04 1.0000000E-04 1.0000000E-04 1.0000000E-04 1.0000000E-04 1.0000000E-04 1.0000000E-04 1.0000000E-04 1.0000000E-04 1.0000000E-04 1.0000000E-04 1.0000000E-04 1.0000000E-04 1.0000000E-04 1.0000000E-04 1.0000000E-04 1.0000000E-04 1.0000000E-04 1.0000000E-04 1.0000000E-04 1.0000000E-04 1.0000000E-04 1.0000000E-04 1.0000000E-04 1.0000000E-04 1.0000000E-04 1.0000000E-04 1.0000000E-04 1.0000000E-04 1.0000000E-04 1.0000000E-04 1.0000000E-04 1.0000000E-04 1.0000000E-04 1.0000000E-04 1.0000000E-04 1.0000000E-04 1.0000000E-04 1.0000000E-04 1.0000000E-04 1.0000000E-04 1.0000000E-04 1.0000000E-04 1.0000000E-04 1.0000000E-04 1.0000000E-04 1.0000000E-04 1.0000000E-04 1.0000000E-04 1.0000000E-04 1.0000000E-04 1.0000000E-04 1.0000000E-04 1.0000000E-04 1.0000000E-04 1.0000000E-04 1.0000000E-04 1.0000000E-04 1.0000000E-04 1.0000000E-04 1.0000000E-04 1.0000000E-04 1.0000000E-04 1.0000000E-04 1.0000000E-04 1.0000000E-04 1.0000000E-04 1.0000000E-04 1.0000000E-04 1.0000000E-04 1.0000000E-04 1.0000000E-04 1.0000000E-04 1.0000000E-04 1.0000000E-04 1.0000000E-04 1.0000000E-04 1.0000000E-02 1.0000000E-02 1.0000000E-02 1.0000000E-02 1.0000000E-02 1.0000000E-02 1.0000000E-02 1.0000000E-02 1.0000000E-02 1.0000000E-02 1.0000000E-02 1.0000000E-02 1.0000000E-02 1.0000000E-02 1.0000000E-02 1.0000000E-02 1.0000000E-02 1.0000000E-02 1.0000000E-02 1.0000000E-02 1.0000000E-02 1.0000000E-02 1.0000000E-02 1.0000000E-02 1.0000000E-02 1.0000000E-04 1.0000000E-04 1.0000000E-04 1.0000000E-04 1.0000000E-04 1.0000000E-04 1.0000000E-04 1.0000000E-04 1.0000000E-04 1.0000000E-04 1.0000000E-04 1.0000000E-04 1.0000000E-04 1.0000000E-04 1.0000000E-04 1.0000000E-04 1.0000000E-04 1.0000000E-04 1.0000000E-04 1.0000000E-04 1.0000000E-04 1.0000000E-04 1.0000000E-04 1.0000000E-04 1.0000000E-04 1.0000000E-04 1.0000000E-04 1.0000000E-04 1.0000000E-04 1.0000000E-04 1.0000000E-04 1.0000000E-04 1.0000000E-04 1.0000000E-04 1.0000000E-04 1.0000000E-04 1.0000000E-04 1.0000000E-04 1.0000000E-04 1.0000000E-04 1.0000000E-04 1.0000000E-04 1.0000000E-04 1.0000000E-04 1.0000000E-04 1.0000000E-04 1.0000000E-04 1.0000000E-04 1.0000000E-04 1.0000000E-04 1.0000000E-04 1.0000000E-04 1.0000000E-04 1.0000000E-04 1.0000000E-04 1.0000000E-04 1.0000000E-04 1.0000000E-04 1.0000000E-04 1.0000000E-04 1.0000000E-04 1.0000000E-04 1.0000000E-04 1.0000000E-04 1.0000000E-04 1.0000000E-04 1.0000000E-04 1.0000000E-04 1.0000000E-04 1.0000000E-04 1.0000000E-04 1.0000000E-04 1.0000000E-04 1.0000000E-04 1.0000000E-04 1.0000000E-04 1.0000000E-04
 1.0000000E-05 1.0000000E-05 1.0000000E-05 1.0000000E-05 1.0000000E-05 1.0000000E-05 1.0000000E-05 1.0000000E-05 1.0000000E-05 1.0000000E-05 1.0000000E-05 1.0000000E-05 1.0000000E-05 1.0000000E-05 1.0000000E-05 1.0000000E-05 1.0000000E-05 1.0000000E-05 1.0000000E-05 1.0000000E-05 1.0000000E-05 1.0000000E-05 1.0000000E-05 1.0000000E-05 1.0000000E-05 1.0000000E-05 1.0000000E-05 1.0000000E-05 1.0000000E-05 1.0000000E-05 1.0000000E-05 1.0000000E-05 1.0000000E-05 1.0000000E-05 1.0000000E-05 1.0000000E-05 1.0000000E-05 1.0000000E-05 1.0000000E-05 1.0000000E-05 1.0000000E-05 1.0000000E-05 1.0000000E-05 1.0000000E-05 1.0000000E-05 1.0000000E-05 1.0000000E-05 1.0000000E-05 1.0000000E-05 1.0000000E-05 1.0000000E-05 1.0000000E-05 1.0000000E-05 1.0000000E-05 1.0000000E-05 1.0000000E-05 1.0000000E-04 1.0000000E-04 1.0000000E-04 1.0000000E-04 1.0000000E-04 1.0000000E-04 1.0000000E-04 1.0000000E-04 1.0000000E-04 1.0000000E-04 1.0000000E-04 1.0000000E-04 1.0000000E-04 1.0000000E-04 1.0000000E-04 1.0000000E-04 1.0000000E-04 1.0000000E-04 1.0000000E-04 1.0000000E-04 1.0000000E-04 1.0000000E-04 1.0000000E-04 1.0000000E-04 1.0000000E-04 1.0000000E-04 1.0000000E-04 1.0000000E-04 1.0000000E-04 1.0000000E-04 1.0000000E-04 1.0000000E-04 1.0000000E-04 1.0000000E-04 1.0000000E-04 1.0000000E-04 1.0000000E-04 1.0000000E-04 1.0000000E-04 1.0000000E-04 1.0000000E-04 1.0000000E-04 1.0000000E-04 1.0000000E-04 1.0000000E-04 1.0000000E-04 1.0000000E-04 1.0000000E-04 1.0000000E-04 1.0000000E-04 1.0000000E-04 1.0000000E-04 1.0000000E-04 1.0000000E-04 1.0000000E-04 1.0000000E-04 1.0000000E-04 1.0000000E-04 1.0000000E-04 1.0000000E-04 1.0000000E-04 1.0000000E-04 1.0000000E-04 1.0000000E-04 1.0000000E-04 1.0000000E-04 1.0000000E-04 1.0000000E-04 1.0000000E-04 1.0000000E-04 1.0000000E-04 1.0000000E-04 1.0000000E-04 1.0000000E-04 1.0000000E-04 1.0000000E-04 1.0000000E-04 1.0000000E-04 1.0000000E-04 1.0000000E-04 1.0000000E-04 1.0000000E-04 1.0000000E-04 1.0000000E-04 1.0000000E-04 1.0000000E-04 1.0000000E-04 1.0000000E-04 1.0000000E-04 1.0000000E-04 1.0000000E-04 1.0000000E-04 1.0000000E-04 1.0000000E-04 1.0000000E-04 1.0000000E-04 1.0000000E-04 1.0000000E-04 1.0000000E-04 1.0000000E-04 1.0000000E-04 1.0000000E-04 1.0000000E-02 1.0000000E-02 1.0000000E-02 1.0000000E-02 1.0000000E-02 1.0000000E-02 1.0000000E-02 1.0000000E-02 1.0000000E-02 1.0000000E-02 1.0000000E-02 1.0000000E-02 1.0000000E-02 1.0000000E-02 1.0000000E-02 1.0000000E-02 1.0000000E-02 1.0000000E-02 1.0000000E-02 1.0000000E-02 1.0000000E-02 1.0000000E-02 1.0000000E-02 1.0000000E-02 1.0000000E-02 1.0000000E-02 1.0000000E-04 1.0000000E-04 1.0000000E-04 1.0000000E-04 1.0000000E-04 1.0000000E-04 1.0000000E-04 1.0000000E-04 1.0000000E-04 1.0000000E-04 1.0000000E-04 1.0000000E-04 1.0000000E-04 1.0000000E-04 1.0000000E-04 1.0000000E-04 1.0000000E-04 1.0000000E-04 1.0000000E-04 1.0000000E-04 1.0000000E-04 1.0000000E-04 1.0000000E-04 1.0000000E-04 1.0000000E-04 1.0000000E-04 1.0000000E-04 1.0000000E-04 1.0000000E-04 1.0000000E-04 1.0000000E-04 1.0000000E-04 1.0000000E-04 1.0000000E-04 1.0000000E-04 1.0000000E-04 1.0000000E-04 1.0000000E-04 1.0000000E-04 1.0000000E-04 1.0000000E-04 1.0000000E-04 1.0000000E-04 1.0000000E-04 1.0000000E-04 1.0000000E-04 1.0000000E-04 1.0000000E-04 1.0000000E-04 1.0000000E-04 1.0000000E-04 1.0000000E-04 1.0000000E-04 1.0000000E-04 1.0000000E-04 1.0000000E-04 1.0000000E-04 1.0000000E-04 1.0000000E-04 1.0000000E-04 1.0000000E-04 1.0000000E-04 1.0000000E-04 1.0000000E-04 1.0000000E-04 1.0000000E-04 1.0000000E-04 1.0000000E-04 1.0000000E-04 1.0000000E-04 1.0000000E-04 1.0000000E-04 1.0000000E-04 1.0000000E-04 1.0000000E-04 1.0000000E-04